Version 4.1
SHEET 1 880 680
WIRE 544 -96 272 -96
WIRE 272 -48 272 -96
WIRE 272 128 272 32
WIRE -32 176 -208 176
WIRE 208 176 48 176
WIRE 544 176 544 -96
WIRE -208 256 -208 176
WIRE -208 432 -208 336
WIRE 272 432 272 224
WIRE 272 432 -208 432
WIRE 544 432 544 256
WIRE 544 432 272 432
WIRE 272 496 272 432
FLAG 272 496 0
SYMBOL res 64 160 R90
WINDOW 0 0 56 VBottom 2
WINDOW 3 32 56 VTop 2
SYMATTR InstName Rb
SYMATTR Value 1K
SYMBOL voltage -208 240 R0
WINDOW 3 24 44 Left 2
WINDOW 123 0 0 Left 0
WINDOW 39 0 0 Left 0
SYMATTR InstName Vi
SYMATTR Value PULSE(0 5 0 50n 50n 5u 10u)
SYMBOL voltage 544 160 R0
SYMATTR InstName Vcc
SYMATTR Value 5
SYMBOL res 256 -64 R0
SYMATTR InstName Rc
SYMATTR Value 1K
SYMBOL npn 208 128 R0
SYMATTR InstName Q1
SYMATTR Value 2N2222
TEXT 496 480 Left 2 !.tran 20u
